Version 4
SHEET 1 880 680
WIRE 208 80 192 80
WIRE 288 80 272 80
WIRE 192 176 192 80
WIRE 192 176 128 176
WIRE 208 176 192 176
WIRE 288 176 288 80
WIRE 288 176 272 176
WIRE 352 176 288 176
WIRE 128 224 128 176
WIRE 352 288 352 176
WIRE 480 288 352 288
WIRE 208 320 192 320
WIRE 288 320 272 320
WIRE 192 384 192 320
WIRE 192 384 128 384
WIRE 208 384 192 384
WIRE 288 384 288 320
WIRE 288 384 272 384
WIRE 352 384 352 288
WIRE 352 384 288 384
WIRE 128 432 128 384
WIRE 128 304 128 304
FLAG 128 512 0
FLAG 128 304 0
FLAG 480 368 0
SYMBOL Misc/battery 128 208 R0
SYMATTR InstName V1
SYMATTR Value 16.8
SYMBOL Misc/battery 128 416 R0
SYMATTR InstName V2
SYMATTR Value 14
SYMBOL schottky 208 192 R270
WINDOW 0 32 32 VTop 2
WINDOW 3 0 32 VBottom 2
SYMATTR InstName D1
SYMBOL schottky 208 400 R270
WINDOW 0 32 32 VTop 2
WINDOW 3 0 32 VBottom 2
SYMATTR InstName D2
SYMBOL Res 464 272 R0
SYMATTR InstName Rload
SYMATTR Value 20k
TEXT -48 208 Left 0 ;Freshly charged battery (16.8V)
TEXT -32 424 Left 0 ;Depleted battery (<15V)
TEXT 480 176 Left 2 !.op
TEXT 304 144 Left 0 ;Diode current needs to be rated around 500mA to support Orin
TEXT 216 80 Left 1 ;Switch\n~70A
TEXT 224 312 Left 1 ;Switch\n~70A
TEXT 256 448 Left 1 ;Order of operations:\n1. Thrusters/high current draw off\n2. Both switches to open (diode operation)\n3. Plug in fresh battery\n4. Unplug old battery\n5. Both switches to closed (high current operation)\n6. Swap to other side if we need to do it again
